!
!  This is a hydrogen oxidation mechanism, 
!  a subset of the Leeds methane mechanism (v. 1.2)
!  This subset has been created by program MECHMOD.
!
!
ELEMENTS  H  O  N  AR  END                                                   
SPECIES
H2     O2   H2O   H2O2   H   O   OH   HO2   N2      AR      
END
THERMO ALL
   300.000  1000.000  5000.000
H2                      H   2    0    0    0G    300.00   5000.00 1000.00    0 1
 2.99142300E+00 7.00064400E-04-5.63382900E-08-9.23157800E-12 1.58275200E-15    2
-8.35034000E+02-1.35511000E+00 3.29812400E+00 8.24944200E-04-8.14301500E-07    3
-9.47543400E-11 4.13487200E-13-1.01252100E+03-3.29409400E+00                   4
O2                      O   2    0    0    0G    300.00   5000.00 1000.00    0 1
 3.69757800E+00 6.13519700E-04-1.25884200E-07 1.77528100E-11-1.13643500E-15    2
-1.23393000E+03 3.18916600E+00 3.21293600E+00 1.12748600E-03-5.75615000E-07    3
 1.31387700E-09-8.76855400E-13-1.00524900E+03 6.03473800E+00                   4
H2O                     H   2O   1    0    0G    300.00   5000.00 1000.00    0 1
 2.67214600E+00 3.05629300E-03-8.73026000E-07 1.20099600E-10-6.39161800E-15    2
-2.98992100E+04 6.86281700E+00 3.38684200E+00 3.47498200E-03-6.35469600E-06    3
 6.96858100E-09-2.50658800E-12-3.02081100E+04 2.59023300E+00                   4
H2O2                    H   2O   2    0    0G    300.00   5000.00 1000.00    0 1
 4.57316700E+00 4.33613600E-03-1.47468900E-06 2.34890400E-10-1.43165400E-14    2
-1.80069600E+04 5.01137000E-01 3.38875400E+00 6.56922600E-03-1.48501300E-07    3
-4.62580600E-09 2.47151500E-12-1.76631500E+04 6.78536300E+00                   4
H                       H   1    0    0    0G    300.00   5000.00 1000.00    0 1
 2.50000000E+00 0.00000000E+00 0.00000000E+00 0.00000000E+00 0.00000000E+00    2
 2.54716300E+04-4.60117600E-01 2.50000000E+00 0.00000000E+00 0.00000000E+00    3
 0.00000000E+00 0.00000000E+00 2.54716300E+04-4.60117600E-01                   4
O                       O   1    0    0    0G    300.00   5000.00 1000.00    0 1
 2.54206000E+00-2.75506200E-05-3.10280300E-09 4.55106700E-12-4.36805200E-16    2
 2.92308000E+04 4.92030800E+00 2.94642900E+00-1.63816600E-03 2.42103200E-06    3
-1.60284300E-09 3.89069600E-13 2.91476400E+04 2.96399500E+00                   4
OH                      H   1O   1    0    0G    300.00   5000.00 1000.00    0 1
 2.88273000E+00 1.01397400E-03-2.27687700E-07 2.17468400E-11-5.12630500E-16    2
 3.88688800E+03 5.59571200E+00 3.63726600E+00 1.85091000E-04-1.67616500E-06    3
 2.38720300E-09-8.43144200E-13 3.60678200E+03 1.35886000E+00                   4
HO2                     H   1O   2    0    0G    300.00   5000.00 1000.00    0 1
 4.07219100E+00 2.13129600E-03-5.30814500E-07 6.11226900E-11-2.84116500E-15    2
-1.57972700E+02 3.47602900E+00 2.97996300E+00 4.99669700E-03-3.79099700E-06    3
 2.35419200E-09-8.08902400E-13 1.76227400E+02 9.22272400E+00                   4
N2                      N   2    0    0    0G    300.00   5000.00 1000.00    0 1
 2.92664000E+00 1.48797700E-03-5.68476100E-07 1.00970400E-10-6.75335100E-15    2
-9.22797700E+02 5.98052800E+00 3.29867700E+00 1.40824000E-03-3.96322200E-06    3
 5.64151500E-09-2.44485500E-12-1.02090000E+03 3.95037200E+00                   4
AR                      AR  1    0    0    0G    300.00   5000.00 1000.00    0 1
 2.50000000E+00 0.00000000E+00 0.00000000E+00 0.00000000E+00 0.00000000E+00    2
-7.45375000E+02 4.36600100E+00 2.50000000E+00 0.00000000E+00 0.00000000E+00    3
 0.00000000E+00 0.00000000E+00-7.45375000E+02 4.36600100E+00                   4
END