ELEMENTS  H  O  C  N  AR  HE  S  END                                            
SPECIES
H2      CH4     O2      H2O     CO      CO2     C       H       CH      CH3     
O       OH      HO2     N2      AR      N       NH      NO      NO2     S       
SH      H2S     SO      SO2     SO3     HSO2    HOSO    HOSO2   SN      S2      
CS      COS     HSNO    HSO     HOS     HSOH    H2SO    HOSHO   HS2     H2S2    
SO2*    
END
THERMO ALL
   300.000  1000.000  5000.000
H2                      H   2    0    0    0G    300.00   5000.00 1000.00    0 1
 2.99142300E+00 7.00064400E-04-5.63382900E-08-9.23157800E-12 1.58275200E-15    2
-8.35034000E+02-1.35511000E+00 3.29812400E+00 8.24944200E-04-8.14301500E-07    3
-9.47543400E-11 4.13487200E-13-1.01252100E+03-3.29409400E+00                   4
CH4                     H   4C   1    0    0G    300.00   5000.00 1000.00    0 1
 1.68347900E+00 1.02372400E-02-3.87512900E-06 6.78558500E-10-4.50342300E-14    2
-1.00807900E+04 9.62339500E+00 7.78741500E-01 1.74766800E-02-2.78340900E-05    3
 3.04970800E-08-1.22393100E-11-9.82522900E+03 1.37221900E+01                   4
O2                      O   2    0    0    0G    300.00   5000.00 1000.00    0 1
 3.69757800E+00 6.13519700E-04-1.25884200E-07 1.77528100E-11-1.13643500E-15    2
-1.23393000E+03 3.18916600E+00 3.21293600E+00 1.12748600E-03-5.75615000E-07    3
 1.31387700E-09-8.76855400E-13-1.00524900E+03 6.03473800E+00                   4
H2O                     H   2O   1    0    0G    300.00   5000.00 1000.00    0 1
 2.67214600E+00 3.05629300E-03-8.73026000E-07 1.20099600E-10-6.39161800E-15    2
-2.98992100E+04 6.86281700E+00 3.38684200E+00 3.47498200E-03-6.35469600E-06    3
 6.96858100E-09-2.50658800E-12-3.02081100E+04 2.59023300E+00                   4
CO                      O   1C   1    0    0G    300.00   5000.00 1000.00    0 1
 3.02507800E+00 1.44268900E-03-5.63082800E-07 1.01858100E-10-6.91095200E-15    2
-1.42683500E+04 6.10821800E+00 3.26245200E+00 1.51194100E-03-3.88175500E-06    3
 5.58194400E-09-2.47495100E-12-1.43105400E+04 4.84889700E+00                   4
CO2                     O   2C   1    0    0G    300.00   5000.00 1000.00    0 1
 4.45362300E+00 3.14016900E-03-1.27841100E-06 2.39399700E-10-1.66903300E-14    2
-4.89669600E+04-9.55395900E-01 2.27572500E+00 9.92207200E-03-1.04091100E-05    3
 6.86668700E-09-2.11728000E-12-4.83731400E+04 1.01884900E+01                   4
C                       C   1    0    0    0G    300.00   5000.00 1000.00    0 1
 2.60208700E+00-1.78708100E-04 9.08704100E-08-1.14993300E-11 3.31084400E-16    2
 8.54215400E+04 4.19517700E+00 2.49858500E+00 8.08577700E-05-2.69769700E-07    3
 3.04072900E-10-1.10665200E-13 8.54587800E+04 4.75345900E+00                   4
H                       H   1    0    0    0G    300.00   5000.00 1000.00    0 1
 2.50000000E+00 0.00000000E+00 0.00000000E+00 0.00000000E+00 0.00000000E+00    2
 2.54716300E+04-4.60117600E-01 2.50000000E+00 0.00000000E+00 0.00000000E+00    3
 0.00000000E+00 0.00000000E+00 2.54716300E+04-4.60117600E-01                   4
CH                      H   1C   1    0    0G    300.00   5000.00 1000.00    0 1
 2.19622300E+00 2.34038100E-03-7.05820100E-07 9.00758200E-11-3.85504000E-15    2
 7.08672300E+04 9.17837300E+00 3.20020200E+00 2.07287600E-03-5.13443100E-06    3
 5.73389000E-09-1.95553300E-12 7.04525900E+04 3.33158800E+00                   4
CH3                     H   3C   1    0    0G    300.00   5000.00 1000.00    0 1
 2.84405200E+00 6.13797400E-03-2.23034500E-06 3.78516100E-10-2.45215900E-14    2
 1.64378100E+04 5.45269700E+00 2.43044300E+00 1.11241000E-02-1.68022000E-05    3
 1.62182900E-08-5.86495300E-12 1.64237800E+04 6.78979400E+00                   4
O                       O   1    0    0    0G    300.00   5000.00 1000.00    0 1
 2.54206000E+00-2.75506200E-05-3.10280300E-09 4.55106700E-12-4.36805200E-16    2
 2.92308000E+04 4.92030800E+00 2.94642900E+00-1.63816600E-03 2.42103200E-06    3
-1.60284300E-09 3.89069600E-13 2.91476400E+04 2.96399500E+00                   4
OH                      H   1O   1    0    0G    300.00   5000.00 1000.00    0 1
 2.88273000E+00 1.01397400E-03-2.27687700E-07 2.17468400E-11-5.12630500E-16    2
 3.88688800E+03 5.59571200E+00 3.63726600E+00 1.85091000E-04-1.67616500E-06    3
 2.38720300E-09-8.43144200E-13 3.60678200E+03 1.35886000E+00                   4
HO2                     H   1O   2    0    0G    300.00   5000.00 1000.00    0 1
 4.07219100E+00 2.13129600E-03-5.30814500E-07 6.11226900E-11-2.84116500E-15    2
-1.57972700E+02 3.47602900E+00 2.97996300E+00 4.99669700E-03-3.79099700E-06    3
 2.35419200E-09-8.08902400E-13 1.76227400E+02 9.22272400E+00                   4
N2                      N   2    0    0    0G    300.00   5000.00 1000.00    0 1
 2.92664000E+00 1.48797700E-03-5.68476100E-07 1.00970400E-10-6.75335100E-15    2
-9.22797700E+02 5.98052800E+00 3.29867700E+00 1.40824000E-03-3.96322200E-06    3
 5.64151500E-09-2.44485500E-12-1.02090000E+03 3.95037200E+00                   4
AR                      AR  1    0    0    0G    300.00   5000.00 1000.00    0 1
 2.50000000E+00 0.00000000E+00 0.00000000E+00 0.00000000E+00 0.00000000E+00    2
-7.45375000E+02 4.36600100E+00 2.50000000E+00 0.00000000E+00 0.00000000E+00    3
 0.00000000E+00 0.00000000E+00-7.45375000E+02 4.36600100E+00                   4
N                       N   1    0    0    0G    300.00   5000.00 1000.00    0 1
 2.45026800E+00 1.06614600E-04-7.46533700E-08 1.87965200E-11-1.02598400E-15    2
 5.61160400E+04 4.44875800E+00 2.50307100E+00-2.18001800E-05 5.42052900E-08    3
-5.64756000E-11 2.09990400E-14 5.60989000E+04 4.16756600E+00                   4
NH                      H   1N   1    0    0G    300.00   5000.00 1000.00    0 1
 2.76024900E+00 1.37534600E-03-4.45191400E-07 7.69279200E-11-5.01759200E-15    2
 4.20782800E+04 5.85719900E+00 3.33975800E+00 1.25300900E-03-3.49164600E-06    3
 4.21881200E-09-1.55761800E-12 4.18504700E+04 2.50718100E+00                   4
NO                      O   1N   1    0    0G    300.00   5000.00 1000.00    0 1
 3.24543500E+00 1.26913800E-03-5.01589000E-07 9.16928300E-11-6.27541900E-15    2
 9.80084000E+03 6.41729400E+00 3.37654200E+00 1.25306300E-03-3.30275100E-06    3
 5.21781000E-09-2.44626300E-12 9.81796100E+03 5.82959000E+00                   4
NO2                     O   2N   1    0    0G    300.00   5000.00 1000.00    0 1
 4.68285900E+00 2.46242900E-03-1.04225900E-06 1.97690200E-10-1.39171700E-14    2
 2.26129200E+03 9.88598500E-01 2.67060000E+00 7.83850100E-03-8.06386500E-06    3
 6.16171500E-09-2.32015000E-12 2.89629100E+03 1.16120700E+01                   4
S                       S   1    0    0    0G    300.00   5000.00 1000.00    0 1
 2.90214800E+00-5.48454600E-04 2.76457600E-07-5.01711500E-11 3.15068500E-15    2
 3.24942300E+04 3.83847100E+00 3.18732900E+00-1.59577600E-03 2.00553100E-06    3
-1.50708100E-09 4.93128200E-13 3.24225900E+04 2.41444100E+00                   4
SH                      H   1S   1    0    0G    300.00   5000.00 1000.00    0 1
 3.05381000E+00 1.25888400E-03-4.24916900E-07 6.92959100E-11-4.28169100E-15    2
 1.58822500E+04 5.97355100E+00 4.13332700E+00-3.78789300E-04-2.77785400E-06    3
 5.37011200E-09-2.39400600E-12 1.55586200E+04 1.61153500E-01                   4
H2S                     H   2S   1    0    0G    300.00   5000.00 1000.00    0 1
 2.88314700E+00 3.82783500E-03-1.42339800E-06 2.49799900E-10-1.66027300E-14    2
-3.48074300E+03 7.25816200E+00 3.07102900E+00 5.57826100E-03-1.03096700E-05    3
 1.20195300E-08-4.83837000E-12-3.55982600E+03 5.93522600E+00                   4
SO                      O   1S   1    0    0G    300.00   5000.00 1000.00    0 1
 4.02107800E+00 2.58485600E-04 8.94814200E-08-3.58014500E-11 3.22843000E-15    2
-7.11962000E+02 3.45252300E+00 3.08040100E+00 1.80310600E-03 6.70502200E-07    3
-2.06900500E-09 8.51465700E-13-3.98616300E+02 8.58102800E+00                   4
SO2                     O   2S   1    0    0G    300.00   5000.00 1000.00    0 1
 5.25449800E+00 1.97854500E-03-8.20422600E-07 1.57638300E-10-1.12045100E-14    2
-3.75688600E+04-1.14605600E+00 2.91143900E+00 8.10302200E-03-6.90671000E-06    3
 3.32901600E-09-8.77712100E-13-3.68788200E+04 1.11174000E+01                   4
SO3                     O   3S   1    0    0G    300.00   5000.00 1000.00    0 1
 7.05066800E+00 3.24656000E-03-1.40889700E-06 2.72153500E-10-1.94236500E-14    2
-5.02066800E+04-1.10644300E+01 2.57528300E+00 1.51509200E-02-1.22987200E-05    3
 4.24025700E-09-5.26681200E-13-4.89441100E+04 1.21951200E+01                   4
HSO2                    H   1O   2S   1    0G    300.00   1500.00 1500.00    0 1
 1.56273740E+00 2.06913890E-02-2.31120730E-05 1.26702030E-08-2.72741760E-12    2
-1.82148240E+04 1.75568200E+01 1.56273740E+00 2.06913890E-02-2.31120730E-05    3
 1.26702030E-08-2.72741760E-12-1.82148240E+04 1.75568200E+01                   4
HOSO                    H   1O   2S   1    0G    300.00   1500.00 1500.00    0 1
 1.61846970E+00 2.11640610E-02-2.66904820E-05 1.62722160E-08-3.77790050E-12    2
-3.02556410E+04 1.80429370E+01 1.61846970E+00 2.11640610E-02-2.66904820E-05    3
 1.62722160E-08-3.77790050E-12-3.02556410E+04 1.80429370E+01                   4
HOSO2                   H   1O   3S   1    0G    300.00   1500.00 1500.00    0 1
 2.43584740E+00 2.99919410E-02-4.06508710E-05 2.60476030E-08-6.27785460E-12    2
-4.88032510E+04 1.43640720E+01 2.43584740E+00 2.99919410E-02-4.06508710E-05    3
 2.60476030E-08-6.27785460E-12-4.88032510E+04 1.43640720E+01                   4
SN                      N   1S   1    0    0G    300.00   5000.00 1000.00    0 1
 3.88828700E+00 6.77842700E-04-2.72530900E-07 5.13592700E-11-3.59383600E-15    2
 3.04449600E+04 4.19429100E+00 3.40734600E+00 1.79788700E-03-2.01897000E-06    3
 2.10785700E-09-9.52759200E-13 3.06237300E+04 6.82148100E+00                   4
S2                      S   2    0    0    0G    300.00   5000.00 1000.00    0 1
 3.90444300E+00 6.92573300E-04-1.23309700E-07 8.78380900E-13 1.37466200E-15    2
 1.42569300E+04 4.95683400E+00 3.15767300E+00 3.09948000E-03-1.56074600E-06    3
-1.35789100E-09 1.13744400E-12 1.43918700E+04 8.59606200E+00                   4
CS                      C   1S   1    0    0G    300.00   5000.00 1000.00    0 1
 3.73743100E+00 8.18045100E-04-3.17891800E-07 5.35680100E-11-2.88619500E-15    2
 3.24772500E+04 3.57655700E+00 2.93862300E+00 2.72435200E-03-2.39770700E-06    3
 1.68950100E-09-6.66505000E-13 3.27399200E+04 7.84872000E+00                   4
COS                     O   1C   1S   1    0G    300.00   5000.00 1000.00    0 1
 5.19192500E+00 2.50612300E-03-1.02439600E-06 1.94391400E-10-1.37080000E-14    2
-1.84621000E+04-2.82575500E+00 2.85853100E+00 9.51545800E-03-8.88491500E-06    3
 4.22099400E-09-8.55734000E-13-1.78514500E+04 9.08198900E+00                   4
HSNO                    H   1O   1N   1S   1G    300.00   5000.00 1000.00    0 1
 2.90214800E+00-5.48454600E-04 2.76457600E-07-5.01711400E-11 3.15068400E-15    2
 3.24942300E+04 3.83847100E+00 3.18732900E+00-1.59577630E-03 2.00553100E-06    3
-1.50708140E-09 4.93128200E-13 3.24225900E+04 2.41444100E+00                   4
HSO                     H   1O   1S   1    0G    300.00   1500.00 1500.00    0 1
 2.58075930E+00 7.99109020E-03-5.15359720E-06 7.42028010E-10 2.44456910E-13    2
-3.79766780E+03 1.22267030E+01 2.58075930E+00 7.99109020E-03-5.15359720E-06    3
 7.42028010E-10 2.44456910E-13-3.79766780E+03 1.22267030E+01                   4
HOS                     H   1O   1S   1    0G    300.00   1500.00 1500.00    0 1
 2.63736730E+00 7.89119090E-03-8.11726030E-06 4.24833820E-09-8.57901160E-13    2
-1.07268870E+03 1.17096820E+01 2.63736730E+00 7.89119090E-03-8.11726030E-06    3
 4.24833820E-09-8.57901160E-13-1.07268870E+03 1.17096820E+01                   4
HSOH                    H   2O   1S   1    0G    300.00   1500.00 1500.00    0 1
 2.56764410E+00 1.13805210E-02-5.86673240E-06-5.94700410E-10 8.74383290E-13    2
-1.55712560E+04 1.17663990E+01 2.56764410E+00 1.13805210E-02-5.86673240E-06    3
-5.94700410E-10 8.74383290E-13-1.55712560E+04 1.17663990E+01                   4
H2SO                    H   2O   1S   1    0G    300.00   1500.00 1500.00    0 1
 1.95805190E+00 9.72652010E-03 6.84131700E-07-6.23437200E-09 2.41665770E-12    2
-6.67708890E+03 1.47834510E+01 1.95805190E+00 9.72652010E-03 6.84131700E-07    3
-6.23437200E-09 2.41665770E-12-6.67708890E+03 1.47834510E+01                   4
HOSHO                   H   2O   2S   1    0G    300.00   1500.00 1500.00    0 1
 1.19038220E+00 2.56447350E-02-2.66228420E-05 1.34796650E-08-2.64746290E-12    2
-3.37448860E+04 1.90954940E+01 1.19038220E+00 2.56447350E-02-2.66228420E-05    3
 1.34796650E-08-2.64746290E-12-3.37448860E+04 1.90954940E+01                   4
HS2                     H   1S   2    0    0G    298.15   5000.00 2000.00    0 1
 4.65522820E+00 2.92025310E-03-1.10109410E-06 1.88786970E-10-1.23180000E-14    2
 1.64929000E+03 2.79875420E+00 4.02149950E+00 3.19619180E-03 2.15072700E-06    3
-4.86509430E-09 2.13918040E-12 1.89427960E+03 6.42130030E+00                   4
H2S2                    H   2S   2    0    0G    298.15   5000.00 2000.00    0 1
 6.57317350E+00 2.56191390E-03-6.91093150E-07 9.42862420E-11-5.29072100E-15    2
-2.46777910E+02-7.29918400E+00 2.11285540E+00 2.13988280E-02-3.38938560E-05    3
 2.84688010E-08-9.55763250E-12 6.79510550E+02 1.42059830E+01                   4
SO2*                    O   2S   1    0    0G    300.00   5000.00 1000.00    0 1
 5.25449800E+00 1.97854500E-03-8.20422600E-07 1.57638300E-10-1.12045100E-14    2
-8.30057800E+02-1.14605600E+00 2.91143900E+00 8.10302200E-03-6.90671000E-06    3
 3.32901600E-09-8.77712100E-13-1.40017800E+02 1.11174000E+01                   4
END