ELEMENTS  H  O  C  N  AR  END                                                   
SPECIES
H2      CH4     C2H2    O2      H2O     H2O2    CO      CO2     CH2O    C       
H       CH      CH2     CH2(S)  CH3     C2H3    H2CCCH  O       OH      HO2     
HCO     HCCO    N2      AR      CN      HCN     N       NH      NO      HNO     
NH2     H2NO    NCO     N2O     NO2     N2H2    HOCN    H2CN    NNH     NH3     
N2H3    C2N2    HNCO    
END
THERMO ALL
   300.000  1000.000  5000.000
H2                      H   2    0    0    0G    300.00   5000.00 1000.00    0 1
 2.99142300E+00 7.00064400E-04-5.63382900E-08-9.23157800E-12 1.58275200E-15    2
-8.35034000E+02-1.35511000E+00 3.29812400E+00 8.24944200E-04-8.14301500E-07    3
-9.47543400E-11 4.13487200E-13-1.01252100E+03-3.29409400E+00                   4
CH4                     H   4C   1    0    0G    300.00   5000.00 1000.00    0 1
 1.68347900E+00 1.02372400E-02-3.87512900E-06 6.78558500E-10-4.50342300E-14    2
-1.00807900E+04 9.62339500E+00 7.78741500E-01 1.74766800E-02-2.78340900E-05    3
 3.04970800E-08-1.22393100E-11-9.82522900E+03 1.37221900E+01                   4
C2H2                    H   2C   2    0    0G    300.00   5000.00 1000.00    0 1
 4.43677000E+00 5.37603900E-03-1.91281700E-06 3.28637900E-10-2.15671000E-14    2
 2.56676600E+04-2.80033800E+00 2.01356200E+00 1.51904500E-02-1.61631900E-05    3
 9.07899200E-09-1.91274600E-12 2.61244400E+04 8.80537800E+00                   4
O2                      O   2    0    0    0G    300.00   5000.00 1000.00    0 1
 3.69757800E+00 6.13519700E-04-1.25884200E-07 1.77528100E-11-1.13643500E-15    2
-1.23393000E+03 3.18916600E+00 3.21293600E+00 1.12748600E-03-5.75615000E-07    3
 1.31387700E-09-8.76855400E-13-1.00524900E+03 6.03473800E+00                   4
H2O                     H   2O   1    0    0G    300.00   5000.00 1000.00    0 1
 2.67214600E+00 3.05629300E-03-8.73026000E-07 1.20099600E-10-6.39161800E-15    2
-2.98992100E+04 6.86281700E+00 3.38684200E+00 3.47498200E-03-6.35469600E-06    3
 6.96858100E-09-2.50658800E-12-3.02081100E+04 2.59023300E+00                   4
H2O2                    H   2O   2    0    0G    300.00   5000.00 1000.00    0 1
 4.57316700E+00 4.33613600E-03-1.47468900E-06 2.34890400E-10-1.43165400E-14    2
-1.80069600E+04 5.01137000E-01 3.38875400E+00 6.56922600E-03-1.48501300E-07    3
-4.62580600E-09 2.47151500E-12-1.76631500E+04 6.78536300E+00                   4
CO                      O   1C   1    0    0G    300.00   5000.00 1000.00    0 1
 3.02507800E+00 1.44268900E-03-5.63082800E-07 1.01858100E-10-6.91095200E-15    2
-1.42683500E+04 6.10821800E+00 3.26245200E+00 1.51194100E-03-3.88175500E-06    3
 5.58194400E-09-2.47495100E-12-1.43105400E+04 4.84889700E+00                   4
CO2                     O   2C   1    0    0G    300.00   5000.00 1000.00    0 1
 4.45362300E+00 3.14016900E-03-1.27841100E-06 2.39399700E-10-1.66903300E-14    2
-4.89669600E+04-9.55395900E-01 2.27572500E+00 9.92207200E-03-1.04091100E-05    3
 6.86668700E-09-2.11728000E-12-4.83731400E+04 1.01884900E+01                   4
CH2O                    H   2O   1C   1    0G    300.00   5000.00 1000.00    0 1
 2.99560600E+00 6.68132100E-03-2.62895500E-06 4.73715300E-10-3.21251700E-14    2
-1.53203700E+04 6.91257200E+00 1.65273100E+00 1.26314400E-02-1.88816800E-05    3
 2.05003100E-08-8.41323700E-12-1.48654000E+04 1.37848200E+01                   4
C                       C   1    0    0    0G    300.00   5000.00 1000.00    0 1
 2.60208700E+00-1.78708100E-04 9.08704100E-08-1.14993300E-11 3.31084400E-16    2
 8.54215400E+04 4.19517700E+00 2.49858500E+00 8.08577700E-05-2.69769700E-07    3
 3.04072900E-10-1.10665200E-13 8.54587800E+04 4.75345900E+00                   4
H                       H   1    0    0    0G    300.00   5000.00 1000.00    0 1
 2.50000000E+00 0.00000000E+00 0.00000000E+00 0.00000000E+00 0.00000000E+00    2
 2.54716300E+04-4.60117600E-01 2.50000000E+00 0.00000000E+00 0.00000000E+00    3
 0.00000000E+00 0.00000000E+00 2.54716300E+04-4.60117600E-01                   4
CH                      H   1C   1    0    0G    300.00   5000.00 1000.00    0 1
 2.19622300E+00 2.34038100E-03-7.05820100E-07 9.00758200E-11-3.85504000E-15    2
 7.08672300E+04 9.17837300E+00 3.20020200E+00 2.07287600E-03-5.13443100E-06    3
 5.73389000E-09-1.95553300E-12 7.04525900E+04 3.33158800E+00                   4
CH2                     H   2C   1    0    0G    250.00   4000.00 1000.00    0 1
 3.63640800E+00 1.93305700E-03-1.68701600E-07-1.00989900E-10 1.80825600E-14    2
 4.53413400E+04 2.15656100E+00 3.76223700E+00 1.15981900E-03 2.48958500E-07    3
 8.80083600E-10-7.33243500E-13 4.53679100E+04 1.71257800E+00                   4
CH2(S)                  H   2C   1    0    0G    300.00   5000.00 1360.00    0 1
 3.09732461E+00 2.80331155E-03-7.10881104E-07 8.36924323E-11-3.81270428E-15    2
 4.95090024E+04 4.31246006E+00 3.32929383E+00 2.26625413E-03-2.38920714E-07    3
-1.04565889E-10 2.51400070E-14 4.94285310E+04 3.06576550E+00                   4
CH3                     H   3C   1    0    0G    300.00   5000.00 1000.00    0 1
 2.84405200E+00 6.13797400E-03-2.23034500E-06 3.78516100E-10-2.45215900E-14    2
 1.64378100E+04 5.45269700E+00 2.43044300E+00 1.11241000E-02-1.68022000E-05    3
 1.62182900E-08-5.86495300E-12 1.64237800E+04 6.78979400E+00                   4
C2H3                    H   3C   2    0    0G    300.00   5000.00 1000.00    0 1
 5.93346800E+00 4.01774600E-03-3.96674000E-07-1.44126700E-10 2.37864400E-14    2
 3.18543500E+04-8.53031300E+00 2.45927600E+00 7.37147600E-03 2.10987300E-06    3
-1.32164200E-09-1.18478400E-12 3.33522500E+04 1.15562000E+01                   4
H2CCCH                  H   3C   3    0    0G    300.00   4000.00 1000.00    0 1
 8.83104700E+00 4.35719500E-03-4.10906700E-07-2.36872300E-10 4.37652000E-14    2
 3.84742000E+04-2.17791900E+01 4.75420000E+00 1.10802800E-02 2.79332300E-07    3
-5.47921200E-09 1.94962900E-12 3.98888300E+04 5.85454900E-01                   4
O                       O   1    0    0    0G    300.00   5000.00 1000.00    0 1
 2.54206000E+00-2.75506200E-05-3.10280300E-09 4.55106700E-12-4.36805200E-16    2
 2.92308000E+04 4.92030800E+00 2.94642900E+00-1.63816600E-03 2.42103200E-06    3
-1.60284300E-09 3.89069600E-13 2.91476400E+04 2.96399500E+00                   4
OH                      H   1O   1    0    0G    300.00   5000.00 1000.00    0 1
 2.88273000E+00 1.01397400E-03-2.27687700E-07 2.17468400E-11-5.12630500E-16    2
 3.88688800E+03 5.59571200E+00 3.63726600E+00 1.85091000E-04-1.67616500E-06    3
 2.38720300E-09-8.43144200E-13 3.60678200E+03 1.35886000E+00                   4
HO2                     H   1O   2    0    0G    300.00   5000.00 1000.00    0 1
 4.07219100E+00 2.13129600E-03-5.30814500E-07 6.11226900E-11-2.84116500E-15    2
-1.57972700E+02 3.47602900E+00 2.97996300E+00 4.99669700E-03-3.79099700E-06    3
 2.35419200E-09-8.08902400E-13 1.76227400E+02 9.22272400E+00                   4
HCO                     H   1O   1C   1    0G    300.00   5000.00 1000.00    0 1
 3.55727100E+00 3.34557300E-03-1.33500600E-06 2.47057300E-10-1.71385100E-14    2
 3.91632400E+03 5.55229900E+00 2.89833000E+00 6.19914700E-03-9.62308400E-06    3
 1.08982500E-08-4.57488500E-12 4.15992200E+03 8.98361400E+00                   4
HCCO                    H   1O   1C   2    0G    300.00   4000.00 1000.00    0 1
 6.75807300E+00 2.00040000E-03-2.02760700E-07-1.04113200E-10 1.96516500E-14    2
 1.90151300E+04-9.07126200E+00 5.04796500E+00 4.45347800E-03 2.26828300E-07    3
-1.48209500E-09 2.25074200E-13 1.96589200E+04 4.81843900E-01                   4
N2                      N   2    0    0    0G    300.00   5000.00 1000.00    0 1
 2.92664000E+00 1.48797700E-03-5.68476100E-07 1.00970400E-10-6.75335100E-15    2
-9.22797700E+02 5.98052800E+00 3.29867700E+00 1.40824000E-03-3.96322200E-06    3
 5.64151500E-09-2.44485500E-12-1.02090000E+03 3.95037200E+00                   4
AR                      AR  1    0    0    0G    300.00   5000.00 1000.00    0 1
 2.50000000E+00 0.00000000E+00 0.00000000E+00 0.00000000E+00 0.00000000E+00    2
-7.45375000E+02 4.36600100E+00 2.50000000E+00 0.00000000E+00 0.00000000E+00    3
 0.00000000E+00 0.00000000E+00-7.45375000E+02 4.36600100E+00                   4
CN                      C   1N   1    0    0G    300.00   5000.00 1000.00    0 1
 3.72012000E+00 1.51835100E-04 1.98738100E-07-3.79837100E-11 1.32823000E-15    2
 5.11162600E+04 2.88859700E+00 3.66320400E+00-1.15652900E-03 2.16340900E-06    3
 1.85420800E-10-8.21469500E-13 5.12811800E+04 3.73901600E+00                   4
HCN                     H   1C   1N   1    0G    300.00   4000.00 1000.00    0 1
 3.42645700E+00 3.92419000E-03-1.60113800E-06 3.16196600E-10-2.43285000E-14    2
 1.48555200E+04 3.60779500E+00 2.41778700E+00 9.03185600E-03-1.10772700E-05    3
 7.98014100E-09-2.31114100E-12 1.50104400E+04 8.22289100E+00                   4
N                       N   1    0    0    0G    300.00   5000.00 1000.00    0 1
 2.45026800E+00 1.06614600E-04-7.46533700E-08 1.87965200E-11-1.02598400E-15    2
 5.61160400E+04 4.44875800E+00 2.50307100E+00-2.18001800E-05 5.42052900E-08    3
-5.64756000E-11 2.09990400E-14 5.60989000E+04 4.16756600E+00                   4
NH                      H   1N   1    0    0G    300.00   5000.00 1000.00    0 1
 2.76024900E+00 1.37534600E-03-4.45191400E-07 7.69279200E-11-5.01759200E-15    2
 4.20782800E+04 5.85719900E+00 3.33975800E+00 1.25300900E-03-3.49164600E-06    3
 4.21881200E-09-1.55761800E-12 4.18504700E+04 2.50718100E+00                   4
NO                      O   1N   1    0    0G    300.00   5000.00 1000.00    0 1
 3.24543500E+00 1.26913800E-03-5.01589000E-07 9.16928300E-11-6.27541900E-15    2
 9.80084000E+03 6.41729400E+00 3.37654200E+00 1.25306300E-03-3.30275100E-06    3
 5.21781000E-09-2.44626300E-12 9.81796100E+03 5.82959000E+00                   4
HNO                     H   1O   1N   1    0G    300.00   5000.00 1000.00    0 1
 3.61514400E+00 3.21248600E-03-1.26033700E-06 2.26729800E-10-1.53623600E-14    2
 1.06619100E+04 4.81026400E+00 2.78440300E+00 6.60964600E-03-9.30022300E-06    3
 9.43798000E-09-3.75314600E-12 1.09187800E+04 9.03562900E+00                   4
NH2                     H   2N   1    0    0G    300.00   5000.00 1000.00    0 1
 2.96131100E+00 2.93269900E-03-9.06360000E-07 1.61725700E-10-1.20420000E-14    2
 2.19197700E+04 5.77787800E+00 3.43249300E+00 3.29954000E-03-6.61360000E-06    3
 8.59094700E-09-3.57204700E-12 2.17722800E+04 3.09011100E+00                   4
H2NO                    H   2O   1N   1    0G    300.00   4000.00 1500.00    0 1
 5.67334600E+00 2.29883700E-03-1.77444600E-07-1.10348200E-10 1.85976200E-14    2
 5.56932500E+03-6.15354000E+00 2.53059000E+00 8.59603500E-03-5.47103000E-06    3
 2.27624900E-09-4.64807300E-13 6.86803000E+03 1.12665100E+01                   4
NCO                     O   1C   1N   1    0G    300.00   4000.00 1400.00    0 1
 6.07234600E+00 9.22782900E-04-9.84557400E-08-4.76412300E-11 9.09044500E-15    2
 1.35982000E+04-8.50729300E+00 3.35959300E+00 5.39323900E-03-8.14458500E-07    3
-1.91286800E-09 7.83679400E-13 1.46280900E+04 6.54969400E+00                   4
N2O                     O   1N   2    0    0G    300.00   5000.00 1000.00    0 1
 4.71897700E+00 2.87371400E-03-1.19749600E-06 2.25055200E-10-1.57533700E-14    2
 8.16581100E+03-1.65725000E+00 2.54305800E+00 9.49219300E-03-9.79277500E-06    3
 6.26384500E-09-1.90182600E-12 8.76510000E+03 9.51122200E+00                   4
NO2                     O   2N   1    0    0G    300.00   5000.00 1000.00    0 1
 4.68285900E+00 2.46242900E-03-1.04225900E-06 1.97690200E-10-1.39171700E-14    2
 2.26129200E+03 9.88598500E-01 2.67060000E+00 7.83850100E-03-8.06386500E-06    3
 6.16171500E-09-2.32015000E-12 2.89629100E+03 1.16120700E+01                   4
N2H2                    H   2N   2    0    0G    300.00   5000.00 1000.00    0 1
 3.37118500E+00 6.03996800E-03-2.30385400E-06 4.06278900E-10-2.71314400E-14    2
 2.41817200E+04 4.98058500E+00 1.61799900E+00 1.30631200E-02-1.71571200E-05    3
 1.60560800E-08-6.09363900E-12 2.46752600E+04 1.37946700E+01                   4
HOCN                    H   1O   1C   1N   1G    300.00   4000.00 1400.00    0 1
 6.02211200E+00 1.92953000E-03-1.45502900E-07-1.04581100E-10 1.79481400E-14    2
-4.04032100E+03-5.86643300E+00 3.78942400E+00 5.38798100E-03-6.51827000E-07    3
-1.42016400E-09 5.36796900E-13-3.13533500E+03 6.66705200E+00                   4
H2CN                    H   2C   1N   1    0G    300.00   4000.00 1000.00    0 1
 5.20970300E+00 2.96929100E-03-2.85558900E-07-1.63555000E-10 3.04325900E-14    2
 2.76771100E+04-4.44447800E+00 2.85166100E+00 5.69523300E-03 1.07114000E-06    3
-1.62261200E-09-2.35110800E-13 2.86378200E+04 8.99275100E+00                   4
NNH                     H   1N   2    0    0G    250.00   4000.00 1000.00    0 1
 4.41534200E+00 1.61438800E-03-1.63289400E-07-8.55984600E-11 1.61479100E-14    2
 2.78802900E+04 9.04288800E-01 3.50134400E+00 2.05358700E-03 7.17041000E-07    3
 4.92134800E-10-9.67117000E-13 2.83334700E+04 6.39183700E+00                   4
NH3                     H   3N   1    0    0G    300.00   5000.00 1000.00    0 1
 2.46190400E+00 6.05916600E-03-2.00497700E-06 3.13600300E-10-1.93831700E-14    2
-6.49327000E+03 7.47209700E+00 2.20435200E+00 1.01147600E-02-1.46526500E-05    3
 1.44723500E-08-5.32850900E-12-6.52548800E+03 8.12713800E+00                   4
N2H3                    H   3N   2    0    0G    300.00   5000.00 1000.00    0 1
 4.44184600E+00 7.21427100E-03-2.49568400E-06 3.92056500E-10-2.29895000E-14    2
 1.66422100E+04-4.27520500E-01 3.17420400E+00 4.71590700E-03 1.33486700E-05    3
-1.91968500E-08 7.48756400E-12 1.72727000E+04 7.55722400E+00                   4
C2N2                    C   2N   2    0    0G    300.00   5000.00 1000.00    0 1
 6.54800300E+00 3.98470700E-03-1.63421600E-06 3.03859700E-10-2.11106900E-14    2
 3.49071600E+04-9.73579000E+00 4.26545900E+00 1.19225700E-02-1.34201400E-05    3
 9.19229700E-09-2.77894200E-12 3.54788800E+04 1.71321200E+00                   4
HNCO                    H   1O   1C   1N   1G    300.00   4000.00 1400.00    0 1
 6.54530700E+00 1.96576000E-03-1.56266400E-07-1.07431800E-10 1.87468000E-14    2
-1.66477300E+04-1.00388000E+01 3.85846700E+00 6.39034200E-03-9.01662800E-07    3
-1.89822400E-09 7.65138000E-13-1.56234300E+04 4.88249300E+00                   4
END